Pcp_File_Version=4
*** BLOCK I: ATMOSPHERIC INFORMATION  **********************************
   MaxAL                    (MaxAL = number of atmospheric data-records)
   9125
 DailyVar  SinusVar  lLay  lBCCycles lInterc lDummy  lDummy  lDummy  lDummy  lDummy
       f       f       f       f       f       f       f       f       f       f
 hCritS                 (max. allowed pressure head at the soil surface)
    200
       tAtm        Prec       rSoil       rRoot      hCritA          rB          hB          ht        tTop        tBot        Ampl        cTop        cBot   RootDepth
          1         0.1     0.01558           0      1e+006           0           0           0           0           0           0           0           0           0           0          92
          2         0.2     0.02926           0      1e+006           0           0           0           0           0           0           0           0           0           0          92
          3           0     0.02204           0      1e+006           0           0           0           0           0           0           0           0           0           0          92
          4         0.2     0.02204           0      1e+006           0           0           0           0           0           0           0           0           0           0          92
          5           0     0.02204           0      1e+006           0           0           0           0           0           0           0           0           0           0          92
          6           0     0.02033           0      1e+006           0           0           0           0           0           0           0           0           0           0          92
          7           0      0.0228           0      1e+006           0           0           0           0           0           0           0           0           0           0          92
          8           0      0.0266           0      1e+006           0           0           0           0           0           0           0           0           0           0          92
          9           0     0.02546           0      1e+006           0           0           0           0           0           0           0           0           0           0          92
         10           0     0.02603           0      1e+006           0           0           0           0           0           0           0           0           0           0          92
         11           0      0.0266           0      1e+006           0           0           0           0           0           0           0           0           0           0          92
         12         0.1     0.01824           0      1e+006           0           0           0           0           0           0           0           0           0           0          92
         13         1.3     0.00247           0      1e+006           0           0           0           0           0           0           0           0           0           0          92
         14         0.6     0.01919           0      1e+006           0           0           0           0           0           0           0           0           0           0          92
         15           0     0.01501           0      1e+006           0           0           0           0           0           0           0           0           0           0          92
         16         0.6     0.01064           0      1e+006           0           0           0           0           0           0           0           0           0           0          92
         17         0.1     0.01121           0      1e+006           0           0           0           0           0           0           0           0           0           0          92
         18           0     0.00912           0      1e+006           0           0           0           0           0           0           0           0           0           0          92
         19           0     0.02128           0      1e+006           0           0           0           0           0           0           0           0           0           0          92
         20           0     0.01368           0      1e+006           0           0           0           0           0           0           0           0           0           0          92
         21           0     0.01482           0      1e+006           0           0           0           0           0           0           0           0           0           0          92
         22         0.1     0.00931           0      1e+006           0           0           0           0           0           0           0           0           0           0          92
         23           0     -0.0019           0      1e+006           0           0           0           0           0           0           0           0           0           0          92
         24           0    -0.00247           0      1e+006           0           0           0           0           0           0           0           0           0           0          92
         25           0     0.00931           0      1e+006           0           0           0           0           0           0           0           0           0           0          92
         26           0     0.04256           0      1e+006           0           0           0           0           0           0           0           0           0           0          92
         27           0     0.04104           0      1e+006           0           0           0           0           0           0           0           0           0           0          92
         28           0     0.02926           0      1e+006           0           0           0           0           0           0           0           0           0           0          92
         29           0      0.0304           0      1e+006           0           0           0           0           0           0           0           0           0           0          92
         30         0.1     0.01786           0      1e+006           0           0           0           0           0           0           0           0           0           0          92
         31         0.1     0.03173           0      1e+006           0           0           0           0           0           0           0           0           0           0          92
         32         0.2     0.03724           0      1e+006           0           0           0           0           0           0           0           0           0           0          92
         33           0     0.02945           0      1e+006           0           0           0           0           0           0           0           0           0           0          92
         34           0     0.04522           0      1e+006           0           0           0           0           0           0           0           0           0           0          92
         35         0.5      0.0266           0      1e+006           0           0           0           0           0           0           0           0           0           0          92
         36           0     0.02926           0      1e+006           0           0           0           0           0           0           0           0           0           0          92
         37         0.2     0.01083           0      1e+006           0           0           0           0           0           0           0           0           0           0          92
         38           0     0.05206           0      1e+006           0           0           0           0           0           0           0           0           0           0          92
         39           0     0.03781           0      1e+006           0           0           0           0           0           0           0           0           0           0          92
         40         0.3     0.02983           0      1e+006           0           0           0           0           0           0           0           0           0           0          92
         41           0     0.03439           0      1e+006           0           0           0           0           0           0           0           0           0           0          92
         42           0     0.03268           0      1e+006           0           0           0           0           0           0           0           0           0           0          92
         43           0     0.05016           0      1e+006           0           0           0           0           0           0           0           0           0           0          92
         44           0     0.06194           0      1e+006           0           0           0           0           0           0           0           0           0           0          92
         45           0     0.07961           0      1e+006           0           0           0           0           0           0           0           0           0           0          92
         46           0     0.04256           0      1e+006           0           0           0           0           0           0           0           0           0           0          92
         47         0.3     0.04047           0      1e+006           0           0           0           0           0           0           0           0           0           0          92
         48           0     0.02489           0      1e+006           0           0           0           0           0           0           0           0           0           0          92
         49           0     0.04237           0      1e+006           0           0           0           0           0           0           0           0           0           0          92
         50           0     0.04256           0      1e+006           0           0           0           0           0           0           0           0           0           0          92
         51           0     0.03705           0      1e+006           0           0           0           0           0           0           0           0           0           0          92
         52           0      0.0304           0      1e+006           0           0           0           0           0           0           0           0           0           0          92
         53           0     0.04845           0      1e+006           0           0           0           0           0           0           0           0           0           0          92
         54           0     0.05016           0      1e+006           0           0           0           0           0           0           0           0           0           0          92
         55           0     0.04123           0      1e+006           0           0           0           0           0           0           0           0           0           0          92
         56           0     0.04864           0      1e+006           0           0           0           0           0           0           0           0           0           0          92
         57           0     0.05643           0      1e+006           0           0           0           0           0           0           0           0           0           0          92
         58           0     0.05662           0      1e+006           0           0           0           0           0           0           0           0           0           0          92
         59           0     0.05396           0      1e+006           0           0           0           0           0           0           0           0           0           0          92
         60           0      0.0209           0      1e+006           0           0           0           0           0           0           0           0           0           0          92
         61         0.2     0.01805           0      1e+006           0           0           0           0           0           0           0           0           0           0          92
         62           0     0.02052           0      1e+006           0           0           0           0           0           0           0           0           0           0          92
         63         0.2     0.04427           0      1e+006           0           0           0           0           0           0           0           0           0           0          92
         64         0.1     0.04332           0      1e+006           0           0           0           0           0           0           0           0           0           0          92
         65           0     0.05434           0      1e+006           0           0           0           0           0           0           0           0           0           0          92
         66           0     0.06422           0      1e+006           0           0           0           0           0           0           0           0           0           0          92
         67           0     0.06118           0      1e+006           0           0           0           0           0           0           0           0           0           0          92
         68           0      0.0589           0      1e+006           0           0           0           0           0           0           0           0           0           0          92
         69           0     0.03838           0      1e+006           0           0           0           0           0           0           0           0           0           0          92
         70           0     0.06422           0      1e+006           0           0           0           0           0           0           0           0           0           0          92
         71           0     0.03971           0      1e+006           0           0           0           0           0           0           0           0           0           0          92
         72           0     0.06308           0      1e+006           0           0           0           0           0           0           0           0           0           0          92
         73           0     0.07258           0      1e+006           0           0           0           0           0           0           0           0           0           0          92
         74           0     0.05871           0      1e+006           0           0           0           0           0           0           0           0           0           0          92
         75           0     0.07144           0      1e+006           0           0           0           0           0           0           0           0           0           0          92
         76           0     0.08759           0      1e+006           0           0           0           0           0           0           0           0           0           0          92
         77           0     0.08246           0      1e+006           0           0           0           0           0           0           0           0           0           0          92
         78           0     0.06726           0      1e+006           0           0           0           0           0           0           0           0           0           0          92
         79           0     0.09006           0      1e+006           0           0           0           0           0           0           0           0           0           0          92
         80           0     0.08626           0      1e+006           0           0           0           0           0           0           0           0           0           0          92
         81           0      0.0874           0      1e+006           0           0           0           0           0           0           0           0           0           0          92
         82           0     0.09006           0      1e+006           0           0           0           0           0           0           0           0           0           0          92
         83           0     0.08835           0      1e+006           0           0           0           0           0           0           0           0           0           0          92
         84           0     0.09253           0      1e+006           0           0           0           0           0           0           0           0           0           0          92
         85           0     0.08987           0      1e+006           0           0           0           0           0           0           0           0           0           0          92
         86           0     0.09101           0      1e+006           0           0           0           0           0           0           0           0           0           0          92
         87           0     0.08531           0      1e+006           0           0           0           0           0           0           0           0           0           0          92
         88           0     0.08474           0      1e+006           0           0           0           0           0           0           0           0           0           0          92
         89           0     0.09196           0      1e+006           0           0           0           0           0           0           0           0           0           0          92
         90           0       0.095           0      1e+006           0           0           0           0           0           0           0           0           0           0          92
         91     0.10747     0.09747           0      1e+006           0           0           0           0           0           0    0.697869           0           0           0          92
         92           0     0.10051           0      1e+006           0           0           0           0           0           0           0           0           0           0          92
         93           0     0.09747           0      1e+006           0           0           0           0           0           0           0           0           0           0          92
         94           0     0.08702           0      1e+006           0           0           0           0           0           0           0           0           0           0          92
         95           0     0.09443           0      1e+006           0           0           0           0           0           0           0           0           0           0          92
         96           0     0.08683           0      1e+006           0           0           0           0           0           0           0           0           0           0          92
         97           0     0.04161           0      1e+006           0           0           0           0           0           0           0           0           0           0          92
         98           0     0.06859           0      1e+006           0           0           0           0           0           0           0           0           0           0          92
         99           0       0.095           0      1e+006           0           0           0           0           0           0           0           0           0           0          92
        100           0     0.10621           0      1e+006           0           0           0           0           0           0           0           0           0           0          92
        101           0     0.12008           0      1e+006           0           0           0           0           0           0           0           0           0           0          92
        102           0     0.10792           0      1e+006           0           0           0           0           0           0           0           0           0           0          92
        103           0      0.1083           0      1e+006           0           0           0           0           0           0           0           0           0           0          92
        104           0     0.10488           0      1e+006           0           0           0           0           0           0           0           0           0           0          92
        105     0.11032     0.10032           0      1e+006           0           0           0           0           0           0     0.67984           0           0           0          92
        106           0     0.05415           0      1e+006           0           0           0           0           0           0           0           0           0           0          92
        107           0     0.07638           0      1e+006           0           0           0           0           0           0           0           0           0           0          92
        108         0.2     0.09557           0      1e+006           0           0           0           0           0           0           0           0           0           0          92
        109           0     0.09196           0      1e+006           0           0           0           0           0           0           0           0           0           0          92
        110         0.1     0.06897           0      1e+006           0           0           0           0           0           0           0           0           0           0          92
        111           0     0.10336           0      1e+006           0           0           0           0           0           0           0           0           0           0          92
        112           0     0.09899           0      1e+006           0           0           0           0           0           0           0           0           0           0          92
        113         0.3     0.07448           0      1e+006           0           0           0           0           0           0           0           0           0           0          92
        114           0     0.10032           0      1e+006           0           0           0           0           0           0           0           0           0           0          92
        115         0.1     0.10488           0      1e+006           0           0           0           0           0           0           0           0           0           0          92
        116           0     0.12369           0      1e+006           0           0           0           0           0           0           0           0           0           0          92
        117           0     0.12255           0      1e+006           0           0           0           0           0           0           0           0           0           0          92
        118           0     0.12958           0      1e+006           0           0           0           0           0           0           0           0           0           0          92
        119           0     0.13053           0      1e+006           0           0           0           0           0           0           0           0           0           0          92
        120           0     0.10488           0      1e+006           0           0           0           0           0           0           0           0           0           0          92
        121        0.01           0     0.29952      1e+006           0           0           0           0           0           0         7.5           0           0           0          92
        122           0           0     0.34656      1e+006           0           0           0           0           0           0           0           0           0           0          92
        123           0           0     0.34368      1e+006           0           0           0           0           0           0           0           0           0           0          92
        124           0           0     0.35088      1e+006           0           0           0           0           0           0           0           0           0           0          92
        125           0           0     0.38304      1e+006           0           0           0           0           0           0           0           0           0           0          92
        126           0           0     0.37728      1e+006           0           0           0           0           0           0           0           0           0           0          92
        127           0           0     0.36816      1e+006           0           0           0           0           0           0           0           0           0           0          92
        128           0           0     0.34896      1e+006           0           0           0           0           0           0           0           0           0           0          92
        129           0           0     0.33648      1e+006           0           0           0           0           0           0           0           0           0           0          92
        130           0           0     0.22464      1e+006           0           0           0           0           0           0           0           0           0           0          92
        131           0           0     0.30576      1e+006           0           0           0           0           0           0           0           0           0           0          92
        132           0           0     0.31872      1e+006           0           0           0           0           0           0           0           0           0           0          92
        133           0           0     0.30144      1e+006           0           0           0           0           0           0           0           0           0           0          92
        134           0           0     0.32592      1e+006           0           0           0           0           0           0           0           0           0           0          92
        135        0.01           0     0.30144      1e+006           0           0           0           0           0           0         7.5           0           0           0          92
        136           0           0       0.312      1e+006           0           0           0           0           0           0           0           0           0           0          92
        137           0           0     0.35328      1e+006           0           0           0           0           0           0           0           0           0           0          92
        138           0           0      0.3024      1e+006           0           0           0           0           0           0           0           0           0           0          92
        139           0           0      0.2784      1e+006           0           0           0           0           0           0           0           0           0           0          92
        140           0           0      0.2808      1e+006           0           0           0           0           0           0           0           0           0           0          92
        141           0           0     0.28032      1e+006           0           0           0           0           0           0           0           0           0           0          92
        142           0           0     0.31152      1e+006           0           0           0           0           0           0           0           0           0           0          92
        143         0.5           0     0.13632      1e+006           0           0           0           0           0           0           0           0           0           0          92
        144           0           0     0.27792      1e+006           0           0           0           0           0           0           0           0           0           0          92
        145           0           0     0.31248      1e+006           0           0           0           0           0           0           0           0           0           0          92
        146           0           0      0.3144      1e+006           0           0           0           0           0           0           0           0           0           0          92
        147         0.8           0     0.06384      1e+006           0           0           0           0           0           0           0           0           0           0          92
        148         1.7           0      0.1608      1e+006           0           0           0           0           0           0           0           0           0           0          92
        149           0           0     0.26592      1e+006           0           0           0           0           0           0           0           0           0           0          92
        150           0           0     0.30096      1e+006           0           0           0           0           0           0           0           0           0           0          92
        151           0           0     0.29424      1e+006           0           0           0           0           0           0           0           0           0           0          92
        152        0.01           0     0.51834      1e+006           0           0           0           0           0           0         7.5           0           0           0          92